
OS:Version,
  {84ca8a41-392d-4862-bcb3-d9d248db6800}, !- Handle
  2.8.1;                                  !- Version Identifier

OS:Material,
  {a7172392-167c-4b7c-97e6-39003fe7c012}, !- Handle
  Wood shingle  (WS01),                   !- Name
  MediumRough,                            !- Roughness
  0.017769,                               !- Thickness {m}
  0.11544,                                !- Conductivity {W/m-K}
  512.64,                                 !- Density {kg/m3}
  1256.04,                                !- Specific Heat {J/kg-K}
  ,                                       !- Thermal Absorptance
  0.7;                                    !- Solar Absorptance

OS:Material:NoMass,
  {8f77a106-871d-4aeb-b17b-4bef92365ffc}, !- Handle
  Bldg paper felt  (BP01),                !- Name
  Smooth,                                 !- Roughness
  0.01057;                                !- Thermal Resistance {m2-K/W}

OS:Material,
  {5550bb69-f2bb-49d0-a0ec-334426d1205c}, !- Handle
  Wood Sft 3/4 in  (WD01),                !- Name
  MediumRough,                            !- Roughness
  0.019049,                               !- Thickness {m}
  0.11544,                                !- Conductivity {W/m-K}
  512.64,                                 !- Density {kg/m3}
  1381.644;                               !- Specific Heat {J/kg-K}

OS:Material:NoMass,
  {0129aa2e-39c3-45a8-b96f-92cbf782fb88}, !- Handle
  Minwool batt R13 w/ 2x4 frame,          !- Name
  Smooth,                                 !- Roughness
  1.6255;                                 !- Thermal Resistance {m2-K/W}

OS:Material,
  {7d1b2be1-f327-4141-93e1-6426e863e887}, !- Handle
  GypBd 5/8 in  (GP02),                   !- Name
  MediumRough,                            !- Roughness
  0.015879,                               !- Thickness {m}
  0.160266,                               !- Conductivity {W/m-K}
  801,                                    !- Density {kg/m3}
  837.36,                                 !- Specific Heat {J/kg-K}
  ,                                       !- Thermal Absorptance
  0.7;                                    !- Solar Absorptance

OS:Material:NoMass,
  {8fb34b7b-5f97-4cb0-85ea-c11890e56885}, !- Handle
  Air space,                              !- Name
  Smooth,                                 !- Roughness
  0.10919;                                !- Thermal Resistance {m2-K/W}

OS:Material:NoMass,
  {70a91203-2933-4300-9367-e5cfbf4d48e4}, !- Handle
  UG surface fictitious insulation,       !- Name
  Smooth,                                 !- Roughness
  5.28331;                                !- Thermal Resistance {m2-K/W}

OS:Material,
  {c449d14b-a1cc-4cc5-be78-49fa833565b0}, !- Handle
  Soil 8 in,                              !- Name
  MediumRough,                            !- Roughness
  0.204206,                               !- Thickness {m}
  1.730735,                               !- Conductivity {W/m-K}
  1842.3,                                 !- Density {kg/m3}
  837.36;                                 !- Specific Heat {J/kg-K}

OS:Material,
  {0091313c-be82-4de5-a5a3-2240c18e7ae6}, !- Handle
  Conc heavyweight 140lb 8 in  (CC05),    !- Name
  MediumRough,                            !- Roughness
  0.2032,                                 !- Thickness {m}
  1.311205,                               !- Conductivity {W/m-K}
  2242.8,                                 !- Density {kg/m3}
  837.36;                                 !- Specific Heat {J/kg-K}

OS:Material:NoMass,
  {ba985fa5-a656-4680-9d80-c674f8e089db}, !- Handle
  Carpet fiber pad  (CP01),               !- Name
  Smooth,                                 !- Roughness
  0.36631;                                !- Thermal Resistance {m2-K/W}

OS:Material,
  {c225dd54-d6fe-489d-857d-c5eb060c4961}, !- Handle
  Carpet,                                 !- Name
  MediumRough,                            !- Roughness
  0.0127,                                 !- Thickness {m}
  0.06,                                   !- Conductivity {W/m-K}
  288,                                    !- Density {kg/m3}
  1380;                                   !- Specific Heat {J/kg-K}

OS:Material:NoMass,
  {becbd0bd-a202-439a-b9d6-5d0d2cd017e8}, !- Handle
  No insulation,                          !- Name
  Smooth,                                 !- Roughness
  0.001;                                  !- Thermal Resistance {m2-K/W}

OS:Material,
  {93fb7634-1caf-46b7-9310-17d9a8a85bcc}, !- Handle
  Blt-Up roof 3/8 in  (BR01),             !- Name
  MediumRough,                            !- Roughness
  0.00954,                                !- Thickness {m}
  0.162516,                               !- Conductivity {W/m-K}
  1121.4,                                 !- Density {kg/m3}
  1465.38,                                !- Specific Heat {J/kg-K}
  ,                                       !- Thermal Absorptance
  0.3;                                    !- Solar Absorptance

OS:Material,
  {6af56e5b-6713-4e1d-b2b3-9be627e613f6}, !- Handle
  MinBd 3 in R-10.4  (IN24),              !- Name
  MediumRough,                            !- Roughness
  0.076196,                               !- Thickness {m}
  0.041538,                               !- Conductivity {W/m-K}
  240.3,                                  !- Density {kg/m3}
  711.756;                                !- Specific Heat {J/kg-K}

OS:Construction,
  {1289d03a-c8bc-4a38-9ae1-108ad1ac428b}, !- Handle
  R-13 wood frame wall,                   !- Name
  ,                                       !- Surface Rendering Name
  {a7172392-167c-4b7c-97e6-39003fe7c012}, !- Layer 1
  {8f77a106-871d-4aeb-b17b-4bef92365ffc}, !- Layer 2
  {5550bb69-f2bb-49d0-a0ec-334426d1205c}, !- Layer 3
  {0129aa2e-39c3-45a8-b96f-92cbf782fb88}, !- Layer 4
  {7d1b2be1-f327-4141-93e1-6426e863e887}; !- Layer 5

OS:Construction,
  {d60bfa22-d186-47af-bba6-25291b2159dc}, !- Handle
  R-0 metal frame wall,                   !- Name
  ,                                       !- Surface Rendering Name
  {7d1b2be1-f327-4141-93e1-6426e863e887}, !- Layer 1
  {8fb34b7b-5f97-4cb0-85ea-c11890e56885}, !- Layer 2
  {7d1b2be1-f327-4141-93e1-6426e863e887}; !- Layer 3

OS:Construction,
  {3c2f077b-b8a4-46f4-b951-e1c512e83492}, !- Handle
  Slab edge uninsulated,                  !- Name
  ,                                       !- Surface Rendering Name
  {70a91203-2933-4300-9367-e5cfbf4d48e4}, !- Layer 1
  {c449d14b-a1cc-4cc5-be78-49fa833565b0}, !- Layer 2
  {0091313c-be82-4de5-a5a3-2240c18e7ae6}, !- Layer 3
  {ba985fa5-a656-4680-9d80-c674f8e089db}; !- Layer 4

OS:Construction,
  {f9e20787-631d-4f24-add2-9e3048393c79}, !- Handle
  Passive floor- no insulation- carpet or hardwood, !- Name
  ,                                       !- Surface Rendering Name
  {c225dd54-d6fe-489d-857d-c5eb060c4961}, !- Layer 1
  {becbd0bd-a202-439a-b9d6-5d0d2cd017e8}; !- Layer 2

OS:Construction,
  {19d43490-58df-4d0e-9fff-fd22ff0e7998}, !- Handle
  R-20 over roof deck - cool roof,        !- Name
  ,                                       !- Surface Rendering Name
  {93fb7634-1caf-46b7-9310-17d9a8a85bcc}, !- Layer 1
  {8f77a106-871d-4aeb-b17b-4bef92365ffc}, !- Layer 2
  {6af56e5b-6713-4e1d-b2b3-9be627e613f6}, !- Layer 3
  {6af56e5b-6713-4e1d-b2b3-9be627e613f6}, !- Layer 4
  {5550bb69-f2bb-49d0-a0ec-334426d1205c}; !- Layer 5

OS:ScheduleTypeLimits,
  {f1e485d7-6640-4112-b68a-d6501bd24478}, !- Handle
  Fraction,                               !- Name
  ,                                       !- Lower Limit Value
  ,                                       !- Upper Limit Value
  ,                                       !- Numeric Type
  Dimensionless;                          !- Unit Type

OS:YearDescription,
  {84e548a6-edd8-4352-b519-b248c1cac163}, !- Handle
  1997,                                   !- Calendar Year
  ,                                       !- Day of Week for Start Day
  ;                                       !- Is Leap Year

OS:ThermalZone,
  {e0267e6b-0347-4fa1-b7b9-0f2fde28062a}, !- Handle
  Unconditioned-1,                        !- Name
  ,                                       !- Multiplier
  ,                                       !- Ceiling Height {m}
  162.0331,                               !- Volume {m3}
  ,                                       !- Floor Area {m2}
  ,                                       !- Zone Inside Convection Algorithm
  ,                                       !- Zone Outside Convection Algorithm
  ,                                       !- Zone Conditioning Equipment List Name
  {548fdafa-519f-400e-9ff6-d5bf0fbdea88}, !- Zone Air Inlet Port List
  {ad469cca-a2e5-4254-b5a1-b6282774e2c8}, !- Zone Air Exhaust Port List
  {e27f5906-f25f-454a-8567-cdcf7f16f2b3}, !- Zone Air Node Name
  {5234f93b-aabc-40fb-bee2-68868746c488}, !- Zone Return Air Port List
  ,                                       !- Primary Daylighting Control Name
  ,                                       !- Fraction of Zone Controlled by Primary Daylighting Control
  ,                                       !- Secondary Daylighting Control Name
  ,                                       !- Fraction of Zone Controlled by Secondary Daylighting Control
  ,                                       !- Illuminance Map Name
  ,                                       !- Group Rendering Name
  {e7df1387-8ab0-46ab-b8f6-1d10bde1cd4c}, !- Thermostat Name
  No;                                     !- Use Ideal Air Loads

OS:Node,
  {f21db60d-ca2a-493e-b384-f46dde88a352}, !- Handle
  {bc48f053-ff1b-45ad-a40e-0f375c822626}, !- Name
  {e27f5906-f25f-454a-8567-cdcf7f16f2b3}, !- Inlet Port
  ;                                       !- Outlet Port

OS:Connection,
  {e27f5906-f25f-454a-8567-cdcf7f16f2b3}, !- Handle
  {845e90cf-222b-47a7-9869-4c5249cbf2c7}, !- Name
  {e0267e6b-0347-4fa1-b7b9-0f2fde28062a}, !- Source Object
  11,                                     !- Outlet Port
  {f21db60d-ca2a-493e-b384-f46dde88a352}, !- Target Object
  2;                                      !- Inlet Port

OS:PortList,
  {548fdafa-519f-400e-9ff6-d5bf0fbdea88}, !- Handle
  {1e794bf8-bda0-4703-8dad-2963791a7313}, !- Name
  {e0267e6b-0347-4fa1-b7b9-0f2fde28062a}; !- HVAC Component

OS:PortList,
  {ad469cca-a2e5-4254-b5a1-b6282774e2c8}, !- Handle
  {ef4d95d2-68e5-46fe-9177-ed00498d0383}, !- Name
  {e0267e6b-0347-4fa1-b7b9-0f2fde28062a}; !- HVAC Component

OS:PortList,
  {5234f93b-aabc-40fb-bee2-68868746c488}, !- Handle
  {2e85f4a1-5c35-41e3-b7f9-c00eb9a667bd}, !- Name
  {e0267e6b-0347-4fa1-b7b9-0f2fde28062a}; !- HVAC Component

OS:Sizing:Zone,
  {35f673fa-0f42-42f3-be41-8e1de4e51584}, !- Handle
  {e0267e6b-0347-4fa1-b7b9-0f2fde28062a}, !- Zone or ZoneList Name
  SupplyAirTemperature,                   !- Zone Cooling Design Supply Air Temperature Input Method
  14,                                     !- Zone Cooling Design Supply Air Temperature {C}
  11.11,                                  !- Zone Cooling Design Supply Air Temperature Difference {deltaC}
  SupplyAirTemperature,                   !- Zone Heating Design Supply Air Temperature Input Method
  40,                                     !- Zone Heating Design Supply Air Temperature {C}
  11.11,                                  !- Zone Heating Design Supply Air Temperature Difference {deltaC}
  0.0085,                                 !- Zone Cooling Design Supply Air Humidity Ratio {kg-H2O/kg-air}
  0.005,                                  !- Zone Heating Design Supply Air Humidity Ratio {kg-H2O/kg-air}
  ,                                       !- Zone Heating Sizing Factor
  ,                                       !- Zone Cooling Sizing Factor
  DesignDay,                              !- Cooling Design Air Flow Method
  ,                                       !- Cooling Design Air Flow Rate {m3/s}
  ,                                       !- Cooling Minimum Air Flow per Zone Floor Area {m3/s-m2}
  ,                                       !- Cooling Minimum Air Flow {m3/s}
  ,                                       !- Cooling Minimum Air Flow Fraction
  DesignDay,                              !- Heating Design Air Flow Method
  ,                                       !- Heating Design Air Flow Rate {m3/s}
  ,                                       !- Heating Maximum Air Flow per Zone Floor Area {m3/s-m2}
  ,                                       !- Heating Maximum Air Flow {m3/s}
  ,                                       !- Heating Maximum Air Flow Fraction
  ,                                       !- Design Zone Air Distribution Effectiveness in Cooling Mode
  ,                                       !- Design Zone Air Distribution Effectiveness in Heating Mode
  No,                                     !- Account for Dedicated Outdoor Air System
  NeutralSupplyAir,                       !- Dedicated Outdoor Air System Control Strategy
  autosize,                               !- Dedicated Outdoor Air Low Setpoint Temperature for Design {C}
  autosize;                               !- Dedicated Outdoor Air High Setpoint Temperature for Design {C}

OS:ZoneHVAC:EquipmentList,
  {2af2f8d6-b3ec-48b9-bffc-cd57d1c04f65}, !- Handle
  {0264fd03-bab3-4ed0-9816-bfae70e0f889}, !- Name
  {e0267e6b-0347-4fa1-b7b9-0f2fde28062a}; !- Thermal Zone

OS:AdditionalProperties,
  {ff27ce69-f856-4ad8-9477-3ef49b0e1d23}, !- Handle
  {e0267e6b-0347-4fa1-b7b9-0f2fde28062a}, !- Object Name
  CADObjectId,                            !- Feature Name 1
  String,                                 !- Feature Data Type 1
  4172,                                   !- Feature Value 1
  id,                                     !- Feature Name 2
  String,                                 !- Feature Data Type 2
  aim2243;                                !- Feature Value 2

OS:ThermalZone,
  {fa82e9ef-caf7-45e2-8b0b-eeb7eddb7935}, !- Handle
  Unconditioned-2,                        !- Name
  ,                                       !- Multiplier
  ,                                       !- Ceiling Height {m}
  162.0331,                               !- Volume {m3}
  ,                                       !- Floor Area {m2}
  ,                                       !- Zone Inside Convection Algorithm
  ,                                       !- Zone Outside Convection Algorithm
  ,                                       !- Zone Conditioning Equipment List Name
  {d9c8e55b-2b90-4325-9d70-08b0edfab825}, !- Zone Air Inlet Port List
  {e7e191d0-d32a-41f6-8820-ca18ee927b21}, !- Zone Air Exhaust Port List
  {2d22cbe8-019e-44b5-9fdc-3d129ea3a7e6}, !- Zone Air Node Name
  {ceaa03bf-6f71-4060-807a-6db773e52962}, !- Zone Return Air Port List
  ,                                       !- Primary Daylighting Control Name
  ,                                       !- Fraction of Zone Controlled by Primary Daylighting Control
  ,                                       !- Secondary Daylighting Control Name
  ,                                       !- Fraction of Zone Controlled by Secondary Daylighting Control
  ,                                       !- Illuminance Map Name
  ,                                       !- Group Rendering Name
  {631900de-0e07-4472-8c50-7bff2a238989}, !- Thermostat Name
  No;                                     !- Use Ideal Air Loads

OS:Node,
  {32a8d534-52db-4a44-9c51-bd30fbcca3e9}, !- Handle
  {4656b866-7895-45a5-8a93-11afb6dac440}, !- Name
  {2d22cbe8-019e-44b5-9fdc-3d129ea3a7e6}, !- Inlet Port
  ;                                       !- Outlet Port

OS:Connection,
  {2d22cbe8-019e-44b5-9fdc-3d129ea3a7e6}, !- Handle
  {2d2f3f01-70dc-42d6-8e78-23aaf7fcb984}, !- Name
  {fa82e9ef-caf7-45e2-8b0b-eeb7eddb7935}, !- Source Object
  11,                                     !- Outlet Port
  {32a8d534-52db-4a44-9c51-bd30fbcca3e9}, !- Target Object
  2;                                      !- Inlet Port

OS:PortList,
  {d9c8e55b-2b90-4325-9d70-08b0edfab825}, !- Handle
  {7ea173e9-8e16-4a3d-bae5-9f48b4d3aacf}, !- Name
  {fa82e9ef-caf7-45e2-8b0b-eeb7eddb7935}; !- HVAC Component

OS:PortList,
  {e7e191d0-d32a-41f6-8820-ca18ee927b21}, !- Handle
  {008c10f1-112c-4176-88c0-9fd4f0b1e40b}, !- Name
  {fa82e9ef-caf7-45e2-8b0b-eeb7eddb7935}; !- HVAC Component

OS:PortList,
  {ceaa03bf-6f71-4060-807a-6db773e52962}, !- Handle
  {a79e6480-8553-449d-9b9b-3f755e0f6d4a}, !- Name
  {fa82e9ef-caf7-45e2-8b0b-eeb7eddb7935}; !- HVAC Component

OS:Sizing:Zone,
  {6a5604fc-4f50-4a05-8710-dbb4845debc0}, !- Handle
  {fa82e9ef-caf7-45e2-8b0b-eeb7eddb7935}, !- Zone or ZoneList Name
  SupplyAirTemperature,                   !- Zone Cooling Design Supply Air Temperature Input Method
  14,                                     !- Zone Cooling Design Supply Air Temperature {C}
  11.11,                                  !- Zone Cooling Design Supply Air Temperature Difference {deltaC}
  SupplyAirTemperature,                   !- Zone Heating Design Supply Air Temperature Input Method
  40,                                     !- Zone Heating Design Supply Air Temperature {C}
  11.11,                                  !- Zone Heating Design Supply Air Temperature Difference {deltaC}
  0.0085,                                 !- Zone Cooling Design Supply Air Humidity Ratio {kg-H2O/kg-air}
  0.005,                                  !- Zone Heating Design Supply Air Humidity Ratio {kg-H2O/kg-air}
  ,                                       !- Zone Heating Sizing Factor
  ,                                       !- Zone Cooling Sizing Factor
  DesignDay,                              !- Cooling Design Air Flow Method
  ,                                       !- Cooling Design Air Flow Rate {m3/s}
  ,                                       !- Cooling Minimum Air Flow per Zone Floor Area {m3/s-m2}
  ,                                       !- Cooling Minimum Air Flow {m3/s}
  ,                                       !- Cooling Minimum Air Flow Fraction
  DesignDay,                              !- Heating Design Air Flow Method
  ,                                       !- Heating Design Air Flow Rate {m3/s}
  ,                                       !- Heating Maximum Air Flow per Zone Floor Area {m3/s-m2}
  ,                                       !- Heating Maximum Air Flow {m3/s}
  ,                                       !- Heating Maximum Air Flow Fraction
  ,                                       !- Design Zone Air Distribution Effectiveness in Cooling Mode
  ,                                       !- Design Zone Air Distribution Effectiveness in Heating Mode
  No,                                     !- Account for Dedicated Outdoor Air System
  NeutralSupplyAir,                       !- Dedicated Outdoor Air System Control Strategy
  autosize,                               !- Dedicated Outdoor Air Low Setpoint Temperature for Design {C}
  autosize;                               !- Dedicated Outdoor Air High Setpoint Temperature for Design {C}

OS:ZoneHVAC:EquipmentList,
  {3db5be82-60db-4729-a407-1de188a9d8bc}, !- Handle
  {cfb47a76-6740-4c59-92ce-07230c06dae4}, !- Name
  {fa82e9ef-caf7-45e2-8b0b-eeb7eddb7935}; !- Thermal Zone

OS:AdditionalProperties,
  {771c739d-d21f-483d-9fbe-6c59068e2dc0}, !- Handle
  {fa82e9ef-caf7-45e2-8b0b-eeb7eddb7935}, !- Object Name
  CADObjectId,                            !- Feature Name 1
  String,                                 !- Feature Data Type 1
  4173,                                   !- Feature Value 1
  id,                                     !- Feature Name 2
  String,                                 !- Feature Data Type 2
  aim2247;                                !- Feature Value 2

OS:ThermalZone,
  {9bc4b79f-7b43-4338-ad24-a4a5b50bd336}, !- Handle
  Unconditioned-3,                        !- Name
  ,                                       !- Multiplier
  ,                                       !- Ceiling Height {m}
  165.8431,                               !- Volume {m3}
  ,                                       !- Floor Area {m2}
  ,                                       !- Zone Inside Convection Algorithm
  ,                                       !- Zone Outside Convection Algorithm
  ,                                       !- Zone Conditioning Equipment List Name
  {40429d14-5090-43d2-8a2d-c1434bbe1a99}, !- Zone Air Inlet Port List
  {73eafe71-0159-4637-827c-07cb7cfbd6d5}, !- Zone Air Exhaust Port List
  {005236a0-9f8b-41f3-8c94-215afdffa15b}, !- Zone Air Node Name
  {089d9142-cb87-453e-90b2-b8fc4a0e73b5}, !- Zone Return Air Port List
  ,                                       !- Primary Daylighting Control Name
  ,                                       !- Fraction of Zone Controlled by Primary Daylighting Control
  ,                                       !- Secondary Daylighting Control Name
  ,                                       !- Fraction of Zone Controlled by Secondary Daylighting Control
  ,                                       !- Illuminance Map Name
  ,                                       !- Group Rendering Name
  {3c220a50-4ce5-4f1a-8788-023a4322b192}, !- Thermostat Name
  No;                                     !- Use Ideal Air Loads

OS:Node,
  {690febe8-4581-451c-8c4f-fe5804b2e8b3}, !- Handle
  {23565ca3-f5cd-451a-a770-eb43ca967aaf}, !- Name
  {005236a0-9f8b-41f3-8c94-215afdffa15b}, !- Inlet Port
  ;                                       !- Outlet Port

OS:Connection,
  {005236a0-9f8b-41f3-8c94-215afdffa15b}, !- Handle
  {e95d7f00-8785-4fa6-9672-6f22c74db28b}, !- Name
  {9bc4b79f-7b43-4338-ad24-a4a5b50bd336}, !- Source Object
  11,                                     !- Outlet Port
  {690febe8-4581-451c-8c4f-fe5804b2e8b3}, !- Target Object
  2;                                      !- Inlet Port

OS:PortList,
  {40429d14-5090-43d2-8a2d-c1434bbe1a99}, !- Handle
  {5777954e-4c3b-42ba-bc81-aac487ffce74}, !- Name
  {9bc4b79f-7b43-4338-ad24-a4a5b50bd336}; !- HVAC Component

OS:PortList,
  {73eafe71-0159-4637-827c-07cb7cfbd6d5}, !- Handle
  {0d2f9168-57dc-4362-9d92-9fb6a1a4b54c}, !- Name
  {9bc4b79f-7b43-4338-ad24-a4a5b50bd336}; !- HVAC Component

OS:PortList,
  {089d9142-cb87-453e-90b2-b8fc4a0e73b5}, !- Handle
  {f5f86264-96be-479d-b8ab-ef7f1874aace}, !- Name
  {9bc4b79f-7b43-4338-ad24-a4a5b50bd336}; !- HVAC Component

OS:Sizing:Zone,
  {363b3355-798b-45b7-8d22-378807dac6ba}, !- Handle
  {9bc4b79f-7b43-4338-ad24-a4a5b50bd336}, !- Zone or ZoneList Name
  SupplyAirTemperature,                   !- Zone Cooling Design Supply Air Temperature Input Method
  14,                                     !- Zone Cooling Design Supply Air Temperature {C}
  11.11,                                  !- Zone Cooling Design Supply Air Temperature Difference {deltaC}
  SupplyAirTemperature,                   !- Zone Heating Design Supply Air Temperature Input Method
  40,                                     !- Zone Heating Design Supply Air Temperature {C}
  11.11,                                  !- Zone Heating Design Supply Air Temperature Difference {deltaC}
  0.0085,                                 !- Zone Cooling Design Supply Air Humidity Ratio {kg-H2O/kg-air}
  0.005,                                  !- Zone Heating Design Supply Air Humidity Ratio {kg-H2O/kg-air}
  ,                                       !- Zone Heating Sizing Factor
  ,                                       !- Zone Cooling Sizing Factor
  DesignDay,                              !- Cooling Design Air Flow Method
  ,                                       !- Cooling Design Air Flow Rate {m3/s}
  ,                                       !- Cooling Minimum Air Flow per Zone Floor Area {m3/s-m2}
  ,                                       !- Cooling Minimum Air Flow {m3/s}
  ,                                       !- Cooling Minimum Air Flow Fraction
  DesignDay,                              !- Heating Design Air Flow Method
  ,                                       !- Heating Design Air Flow Rate {m3/s}
  ,                                       !- Heating Maximum Air Flow per Zone Floor Area {m3/s-m2}
  ,                                       !- Heating Maximum Air Flow {m3/s}
  ,                                       !- Heating Maximum Air Flow Fraction
  ,                                       !- Design Zone Air Distribution Effectiveness in Cooling Mode
  ,                                       !- Design Zone Air Distribution Effectiveness in Heating Mode
  No,                                     !- Account for Dedicated Outdoor Air System
  NeutralSupplyAir,                       !- Dedicated Outdoor Air System Control Strategy
  autosize,                               !- Dedicated Outdoor Air Low Setpoint Temperature for Design {C}
  autosize;                               !- Dedicated Outdoor Air High Setpoint Temperature for Design {C}

OS:ZoneHVAC:EquipmentList,
  {96d6cb1c-02bb-4418-ba01-e7e6739ad818}, !- Handle
  {3a460b11-401e-46e6-9bbf-c23964cd3158}, !- Name
  {9bc4b79f-7b43-4338-ad24-a4a5b50bd336}; !- Thermal Zone

OS:AdditionalProperties,
  {785b3161-1c9b-4f99-958e-00004aab49c8}, !- Handle
  {9bc4b79f-7b43-4338-ad24-a4a5b50bd336}, !- Object Name
  CADObjectId,                            !- Feature Name 1
  String,                                 !- Feature Data Type 1
  4174,                                   !- Feature Value 1
  id,                                     !- Feature Name 2
  String,                                 !- Feature Data Type 2
  aim2251;                                !- Feature Value 2

OS:ThermalZone,
  {5839a55c-effc-45f1-ad86-1f4cab9a9a4a}, !- Handle
  Unconditioned-4,                        !- Name
  ,                                       !- Multiplier
  ,                                       !- Ceiling Height {m}
  165.8431,                               !- Volume {m3}
  ,                                       !- Floor Area {m2}
  ,                                       !- Zone Inside Convection Algorithm
  ,                                       !- Zone Outside Convection Algorithm
  ,                                       !- Zone Conditioning Equipment List Name
  {c250d3bc-a31c-4b69-8cd6-c9d4ae092d8d}, !- Zone Air Inlet Port List
  {bff76464-99f6-4cd6-b812-86fdea8b2862}, !- Zone Air Exhaust Port List
  {1bbb0d5f-1b60-4393-a0ae-1048a4e8c2b1}, !- Zone Air Node Name
  {c6f2edff-9f18-4011-aca7-5e5639c317d9}, !- Zone Return Air Port List
  ,                                       !- Primary Daylighting Control Name
  ,                                       !- Fraction of Zone Controlled by Primary Daylighting Control
  ,                                       !- Secondary Daylighting Control Name
  ,                                       !- Fraction of Zone Controlled by Secondary Daylighting Control
  ,                                       !- Illuminance Map Name
  ,                                       !- Group Rendering Name
  {50d21cb6-7a12-4ce9-b2b8-4ebf90894a43}, !- Thermostat Name
  No;                                     !- Use Ideal Air Loads

OS:Node,
  {9ad9b20f-80e4-462a-a7a6-496150007afb}, !- Handle
  {127f8052-75b3-4710-9f95-8eeb2cd53da5}, !- Name
  {1bbb0d5f-1b60-4393-a0ae-1048a4e8c2b1}, !- Inlet Port
  ;                                       !- Outlet Port

OS:Connection,
  {1bbb0d5f-1b60-4393-a0ae-1048a4e8c2b1}, !- Handle
  {e1bdef42-400d-4832-9932-23a8a322fa49}, !- Name
  {5839a55c-effc-45f1-ad86-1f4cab9a9a4a}, !- Source Object
  11,                                     !- Outlet Port
  {9ad9b20f-80e4-462a-a7a6-496150007afb}, !- Target Object
  2;                                      !- Inlet Port

OS:PortList,
  {c250d3bc-a31c-4b69-8cd6-c9d4ae092d8d}, !- Handle
  {3535f64b-6e72-4898-a4dd-94d40aa2607a}, !- Name
  {5839a55c-effc-45f1-ad86-1f4cab9a9a4a}; !- HVAC Component

OS:PortList,
  {bff76464-99f6-4cd6-b812-86fdea8b2862}, !- Handle
  {2df733ef-f94a-463e-aac3-3eca082ee0a1}, !- Name
  {5839a55c-effc-45f1-ad86-1f4cab9a9a4a}; !- HVAC Component

OS:PortList,
  {c6f2edff-9f18-4011-aca7-5e5639c317d9}, !- Handle
  {7a96cb1e-4bce-49ca-ae14-4e283afbfe5a}, !- Name
  {5839a55c-effc-45f1-ad86-1f4cab9a9a4a}; !- HVAC Component

OS:Sizing:Zone,
  {11c02027-4ad1-4ffb-bf18-16a3df8a060d}, !- Handle
  {5839a55c-effc-45f1-ad86-1f4cab9a9a4a}, !- Zone or ZoneList Name
  SupplyAirTemperature,                   !- Zone Cooling Design Supply Air Temperature Input Method
  14,                                     !- Zone Cooling Design Supply Air Temperature {C}
  11.11,                                  !- Zone Cooling Design Supply Air Temperature Difference {deltaC}
  SupplyAirTemperature,                   !- Zone Heating Design Supply Air Temperature Input Method
  40,                                     !- Zone Heating Design Supply Air Temperature {C}
  11.11,                                  !- Zone Heating Design Supply Air Temperature Difference {deltaC}
  0.0085,                                 !- Zone Cooling Design Supply Air Humidity Ratio {kg-H2O/kg-air}
  0.005,                                  !- Zone Heating Design Supply Air Humidity Ratio {kg-H2O/kg-air}
  ,                                       !- Zone Heating Sizing Factor
  ,                                       !- Zone Cooling Sizing Factor
  DesignDay,                              !- Cooling Design Air Flow Method
  ,                                       !- Cooling Design Air Flow Rate {m3/s}
  ,                                       !- Cooling Minimum Air Flow per Zone Floor Area {m3/s-m2}
  ,                                       !- Cooling Minimum Air Flow {m3/s}
  ,                                       !- Cooling Minimum Air Flow Fraction
  DesignDay,                              !- Heating Design Air Flow Method
  ,                                       !- Heating Design Air Flow Rate {m3/s}
  ,                                       !- Heating Maximum Air Flow per Zone Floor Area {m3/s-m2}
  ,                                       !- Heating Maximum Air Flow {m3/s}
  ,                                       !- Heating Maximum Air Flow Fraction